Test_Network/network_26/Feeder_7/Lines.txt
New Line.LINE30 Bus1=30 Bus2=31 phases=3 Linecode=4c_.3_AS Length=1.9583 Units=m
New Line.LINE31 Bus1=30 Bus2=32 phases=3 Linecode=4c_.3_AS Length=2.5203 Units=m
New Line.LINE32 Bus1=30 Bus2=33 phases=3 Linecode=4c_.3_AS Length=1.9583 Units=m
New Line.LINE33 Bus1=30 Bus2=34 phases=3 Linecode=4c_.3_AS Length=0.01 Units=m
New Line.LINE34 Bus1=30 Bus2=35 phases=3 Linecode=4c_.3_AS Length=0.01 Units=m
New Line.LINE35 Bus1=31 Bus2=36 phases=3 Linecode=4c_.3_AS Length=0.12732 Units=m
New Line.LINE36 Bus1=31 Bus2=37 phases=3 Linecode=4c_.3_AS Length=0.12732 Units=m
New Line.LINE37 Bus1=36 Bus2=38 phases=3 Linecode=4c_.3_AS Length=0.10255 Units=m
New Line.LINE38 Bus1=36 Bus2=39 phases=3 Linecode=4c_.3_AS Length=0.10255 Units=m
New Line.LINE39 Bus1=38 Bus2=40 phases=3 Linecode=4c_.3_AS Length=0.70109 Units=m
New Line.LINE40 Bus1=38 Bus2=41 phases=3 Linecode=4c_.3_AS Length=0.70109 Units=m
New Line.LINE41 Bus1=40 Bus2=42 phases=3 Linecode=4c_.3_AS Length=18.8763 Units=m
New Line.LINE42 Bus1=40 Bus2=43 phases=3 Linecode=4c_.3_AS Length=18.8763 Units=m
New Line.LINE43 Bus1=42 Bus2=44 phases=3 Linecode=4c_.3_AS Length=1.0788 Units=m
New Line.LINE44 Bus1=42 Bus2=45 phases=3 Linecode=4c_.3_AS Length=1.0788 Units=m
New Line.LINE45 Bus1=44 Bus2=46 phases=3 Linecode=4c_.3_AS Length=0.20557 Units=m
New Line.LINE46 Bus1=44 Bus2=47 phases=3 Linecode=4c_.3_AS Length=0.20557 Units=m
New Line.LINE47 Bus1=46 Bus2=48 phases=3 Linecode=4c_.3_AS Length=0.21567 Units=m
New Line.LINE48 Bus1=46 Bus2=49 phases=3 Linecode=4c_.3_AS Length=0.21567 Units=m
New Line.LINE49 Bus1=48 Bus2=50 phases=3 Linecode=4c_.3_AS Length=0.4642 Units=m
New Line.LINE50 Bus1=48 Bus2=51 phases=3 Linecode=4c_.3_AS Length=0.4642 Units=m
New Line.LINE51 Bus1=50 Bus2=52 phases=3 Linecode=4c_.3_AS Length=3.0955 Units=m
New Line.LINE52 Bus1=50 Bus2=53 phases=3 Linecode=4c_.3_AS Length=3.0955 Units=m
New Line.LINE53 Bus1=52 Bus2=54 phases=3 Linecode=4c_.3_AS Length=3.0813 Units=m
New Line.LINE54 Bus1=52 Bus2=55 phases=3 Linecode=4c_.3_AS Length=3.0813 Units=m
New Line.LINE55 Bus1=54 Bus2=56 phases=3 Linecode=4c_.3_AS Length=0.81012 Units=m
New Line.LINE56 Bus1=54 Bus2=57 phases=3 Linecode=4c_.3_AS Length=0.81012 Units=m
New Line.LINE57 Bus1=56 Bus2=58 phases=3 Linecode=4c_.3_AS Length=0.063561 Units=m
New Line.LINE58 Bus1=56 Bus2=59 phases=3 Linecode=4c_.3_AS Length=0.063561 Units=m
New Line.LINE59 Bus1=58 Bus2=60 phases=3 Linecode=4c_.3_AS Length=0.056294 Units=m
New Line.LINE60 Bus1=58 Bus2=61 phases=3 Linecode=4c_.3_AS Length=0.056294 Units=m
New Line.LINE61 Bus1=60 Bus2=62 phases=3 Linecode=4c_.3_AS Length=0.080399 Units=m
New Line.LINE62 Bus1=60 Bus2=63 phases=3 Linecode=4c_.3_AS Length=0.080399 Units=m
New Line.LINE63 Bus1=62 Bus2=64 phases=3 Linecode=4c_.3_AS Length=0.098 Units=m
New Line.LINE64 Bus1=62 Bus2=65 phases=3 Linecode=4c_.3_AS Length=0.098 Units=m
New Line.LINE65 Bus1=64 Bus2=66 phases=3 Linecode=4c_.3_AS Length=0.092346 Units=m
New Line.LINE66 Bus1=64 Bus2=67 phases=3 Linecode=4c_.3_AS Length=0.092346 Units=m
New Line.LINE67 Bus1=66 Bus2=68 phases=3 Linecode=4c_.3_AS Length=0.12219 Units=m
New Line.LINE68 Bus1=66 Bus2=69 phases=3 Linecode=4c_.3_AS Length=0.12219 Units=m
New Line.LINE69 Bus1=68 Bus2=70 phases=3 Linecode=4c_.3_AS Length=0.068029 Units=m
New Line.LINE70 Bus1=68 Bus2=71 phases=3 Linecode=4c_.3_AS Length=0.068029 Units=m
New Line.LINE71 Bus1=70 Bus2=72 phases=3 Linecode=4c_.3_AS Length=0.051865 Units=m
New Line.LINE72 Bus1=70 Bus2=73 phases=3 Linecode=4c_.3_AS Length=0.051865 Units=m
New Line.LINE73 Bus1=72 Bus2=74 phases=3 Linecode=4c_.3_AS Length=0.055972 Units=m
New Line.LINE74 Bus1=72 Bus2=75 phases=3 Linecode=4c_.3_AS Length=0.055972 Units=m
New Line.LINE75 Bus1=74 Bus2=76 phases=3 Linecode=4c_.3_AS Length=0.072623 Units=m
New Line.LINE76 Bus1=74 Bus2=77 phases=3 Linecode=4c_.3_AS Length=0.072623 Units=m
New Line.LINE77 Bus1=76 Bus2=78 phases=3 Linecode=4c_.3_AS Length=0.28008 Units=m
New Line.LINE78 Bus1=76 Bus2=79 phases=3 Linecode=4c_.3_AS Length=0.28008 Units=m
New Line.LINE79 Bus1=78 Bus2=80 phases=3 Linecode=4c_.3_AS Length=1.7744 Units=m
New Line.LINE80 Bus1=78 Bus2=81 phases=3 Linecode=4c_.3_AS Length=1.7744 Units=m
New Line.LINE81 Bus1=80 Bus2=82 phases=3 Linecode=4c_.3_AS Length=0.98678 Units=m
New Line.LINE82 Bus1=80 Bus2=83 phases=3 Linecode=4c_.3_AS Length=0.98678 Units=m
New Line.LINE83 Bus1=82 Bus2=84 phases=3 Linecode=4c_.3_AS Length=0.526 Units=m
New Line.LINE84 Bus1=82 Bus2=85 phases=3 Linecode=4c_.3_AS Length=0.526 Units=m
New Line.LINE85 Bus1=84 Bus2=86 phases=3 Linecode=4c_.3_AS Length=0.97026 Units=m
New Line.LINE86 Bus1=84 Bus2=87 phases=3 Linecode=4c_.3_AS Length=0.97026 Units=m
New Line.LINE87 Bus1=86 Bus2=88 phases=3 Linecode=4c_.3_AS Length=1.7664 Units=m
New Line.LINE88 Bus1=86 Bus2=89 phases=3 Linecode=4c_.3_AS Length=1.7664 Units=m
New Line.LINE89 Bus1=88 Bus2=90 phases=3 Linecode=4c_.3_AS Length=0.41949 Units=m
New Line.LINE90 Bus1=88 Bus2=91 phases=3 Linecode=4c_.3_AS Length=0.41949 Units=m
New Line.LINE91 Bus1=90 Bus2=92 phases=3 Linecode=4c_.3_AS Length=0.71156 Units=m
New Line.LINE92 Bus1=90 Bus2=93 phases=3 Linecode=4c_.3_AS Length=0.71156 Units=m
New Line.LINE93 Bus1=92 Bus2=94 phases=3 Linecode=4c_.3_AS Length=0.50574 Units=m
New Line.LINE94 Bus1=92 Bus2=95 phases=3 Linecode=4c_.3_AS Length=0.50574 Units=m
New Line.LINE95 Bus1=94 Bus2=96 phases=3 Linecode=4c_.3_AS Length=2.0553 Units=m
New Line.LINE97 Bus1=94 Bus2=98 phases=3 Linecode=4c_.3_AS Length=2.0553 Units=m
New Line.LINE98 Bus1=96 Bus2=99 phases=3 Linecode=4c_.3_AS Length=2.8347 Units=m
New Line.LINE99 Bus1=96 Bus2=100 phases=3 Linecode=4c_.3_AS Length=2.8347 Units=m
New Line.LINE101 Bus1=99 Bus2=102 phases=3 Linecode=4c_.3_AS Length=4.7616 Units=m
New Line.LINE102 Bus1=99 Bus2=103 phases=3 Linecode=4c_.3_AS Length=4.7616 Units=m
New Line.LINE104 Bus1=102 Bus2=105 phases=3 Linecode=4c_.3_AS Length=6.1848 Units=m
New Line.LINE105 Bus1=102 Bus2=106 phases=3 Linecode=4c_.3_AS Length=6.1848 Units=m
New Line.LINE106 Bus1=105 Bus2=107 phases=3 Linecode=4c_.3_AS Length=7.3682 Units=m
New Line.LINE107 Bus1=105 Bus2=108 phases=3 Linecode=4c_.3_AS Length=7.3682 Units=m
New Line.LINE108 Bus1=107 Bus2=109 phases=3 Linecode=4c_.3_AS Length=5.7589 Units=m
New Line.LINE109 Bus1=107 Bus2=110 phases=3 Linecode=4c_.3_AS Length=5.7589 Units=m
New Line.LINE110 Bus1=109 Bus2=111 phases=3 Linecode=4c_.3_AS Length=8.232 Units=m
New Line.LINE111 Bus1=109 Bus2=112 phases=3 Linecode=4c_.3_AS Length=8.232 Units=m
New Line.LINE112 Bus1=111 Bus2=113 phases=3 Linecode=4c_.3_AS Length=15.9976 Units=m
New Line.LINE113 Bus1=111 Bus2=114 phases=3 Linecode=4c_.3_AS Length=15.9976 Units=m
New Line.LINE114 Bus1=113 Bus2=115 phases=3 Linecode=4c_.3_AS Length=12.5019 Units=m
New Line.LINE116 Bus1=115 Bus2=117 phases=3 Linecode=4c_.3_AS Length=0.61905 Units=m
New Line.LINE117 Bus1=115 Bus2=118 phases=3 Linecode=4c_.3_AS Length=0.61905 Units=m
New Line.LINE118 Bus1=115 Bus2=119 phases=3 Linecode=4c_.3_AS Length=1.2559 Units=m
New Line.LINE120 Bus1=117 Bus2=121 phases=3 Linecode=4c_.3_AS Length=0.37321 Units=m
New Line.LINE121 Bus1=117 Bus2=122 phases=3 Linecode=4c_.3_AS Length=0.37321 Units=m
New Line.LINE123 Bus1=121 Bus2=124 phases=3 Linecode=4c_.3_AS Length=0.5629 Units=m
New Line.LINE124 Bus1=121 Bus2=125 phases=3 Linecode=4c_.3_AS Length=0.5629 Units=m
New Line.LINE126 Bus1=124 Bus2=127 phases=3 Linecode=4c_.3_AS Length=1.107 Units=m
New Line.LINE127 Bus1=124 Bus2=128 phases=3 Linecode=4c_.3_AS Length=1.107 Units=m
New Line.LINE129 Bus1=127 Bus2=130 phases=3 Linecode=4c_.3_AS Length=1.0376 Units=m
New Line.LINE130 Bus1=127 Bus2=131 phases=3 Linecode=4c_.3_AS Length=1.0376 Units=m
New Line.LINE132 Bus1=130 Bus2=133 phases=3 Linecode=4c_.3_AS Length=1.2692 Units=m
New Line.LINE133 Bus1=130 Bus2=134 phases=3 Linecode=4c_.3_AS Length=1.2692 Units=m
New Line.LINE135 Bus1=133 Bus2=136 phases=3 Linecode=4c_.3_AS Length=1.0347 Units=m
New Line.LINE136 Bus1=133 Bus2=137 phases=3 Linecode=4c_.3_AS Length=1.0347 Units=m
New Line.LINE138 Bus1=136 Bus2=139 phases=3 Linecode=4c_.3_AS Length=0.96261 Units=m
New Line.LINE139 Bus1=136 Bus2=140 phases=3 Linecode=4c_.3_AS Length=0.96261 Units=m
New Line.LINE141 Bus1=139 Bus2=142 phases=3 Linecode=4c_.3_AS Length=0.84607 Units=m
New Line.LINE142 Bus1=139 Bus2=143 phases=3 Linecode=4c_.3_AS Length=0.84607 Units=m
New Line.LINE144 Bus1=142 Bus2=145 phases=3 Linecode=4c_.3_AS Length=0.39915 Units=m
New Line.LINE145 Bus1=142 Bus2=146 phases=3 Linecode=4c_.3_AS Length=0.39915 Units=m
New Line.LINE147 Bus1=145 Bus2=148 phases=3 Linecode=4c_.3_AS Length=1.0491 Units=m
New Line.LINE148 Bus1=145 Bus2=149 phases=3 Linecode=4c_.3_AS Length=1.0491 Units=m
New Line.LINE150 Bus1=148 Bus2=151 phases=3 Linecode=4c_.3_AS Length=1.1739 Units=m
New Line.LINE151 Bus1=148 Bus2=152 phases=3 Linecode=4c_.3_AS Length=1.1739 Units=m
New Line.LINE153 Bus1=151 Bus2=154 phases=3 Linecode=4c_.3_AS Length=0.87707 Units=m
New Line.LINE154 Bus1=151 Bus2=155 phases=3 Linecode=4c_.3_AS Length=0.87707 Units=m
New Line.LINE155 Bus1=154 Bus2=156 phases=3 Linecode=4c_.3_AS Length=0.66239 Units=m
New Line.LINE156 Bus1=154 Bus2=157 phases=3 Linecode=4c_.3_AS Length=0.66239 Units=m
New Line.LINE157 Bus1=156 Bus2=158 phases=3 Linecode=4c_.3_AS Length=0.53939 Units=m
New Line.LINE158 Bus1=156 Bus2=159 phases=3 Linecode=4c_.3_AS Length=0.53939 Units=m
New Line.LINE159 Bus1=158 Bus2=160 phases=3 Linecode=4c_.3_AS Length=0.95786 Units=m
New Line.LINE160 Bus1=158 Bus2=161 phases=3 Linecode=4c_.3_AS Length=0.95786 Units=m
New Line.LINE162 Bus1=160 Bus2=163 phases=3 Linecode=4c_.25 Length=3.7227 Units=m
New Line.LINE164 Bus1=160 Bus2=165 phases=3 Linecode=4c_.25 Length=2.4617 Units=m
New Line.LINE167 Bus1=165 Bus2=168 phases=3 Linecode=4c_.25 Length=10.0208 Units=m
New Line.LINE168 Bus1=165 Bus2=169 phases=3 Linecode=4c_.25 Length=10.0208 Units=m
New Line.LINE169 Bus1=165 Bus2=170 phases=3 Linecode=4c_.25 Length=10.0208 Units=m
New Line.LINE171 Bus1=167 Bus2=172 phases=3 Linecode=4c_.25 Length=4.6187 Units=m
New Line.LINE172 Bus1=168 Bus2=173 phases=3 Linecode=4c_.25 Length=6.3292 Units=m
New Line.LINE173 Bus1=168 Bus2=174 phases=3 Linecode=4c_.25 Length=6.3292 Units=m
New Line.LINE174 Bus1=168 Bus2=175 phases=3 Linecode=4c_.25 Length=6.3292 Units=m
New Line.LINE176 Bus1=173 Bus2=177 phases=3 Linecode=4c_.25 Length=10.6068 Units=m
New Line.LINE177 Bus1=173 Bus2=178 phases=3 Linecode=4c_.25 Length=10.6068 Units=m
New Line.LINE179 Bus1=177 Bus2=180 phases=3 Linecode=4c_.25 Length=7.0399 Units=m
New Line.LINE180 Bus1=177 Bus2=181 phases=3 Linecode=4c_.25 Length=7.0399 Units=m
New Line.LINE181 Bus1=177 Bus2=182 phases=3 Linecode=4c_.25 Length=7.0399 Units=m
New Line.LINE183 Bus1=177 Bus2=184 phases=3 Linecode=4c_.25 Length=7.687 Units=m
New Line.LINE185 Bus1=180 Bus2=186 phases=3 Linecode=4c_.25 Length=13.3051 Units=m
New Line.LINE186 Bus1=180 Bus2=187 phases=3 Linecode=4c_.25 Length=13.3051 Units=m
New Line.LINE187 Bus1=180 Bus2=188 phases=3 Linecode=4c_.25 Length=13.3051 Units=m
New Line.LINE190 Bus1=186 Bus2=191 phases=3 Linecode=4c_.25 Length=4.2972 Units=m
New Line.LINE192 Bus1=186 Bus2=193 phases=3 Linecode=4c_.25 Length=4.2972 Units=m
New Line.LINE193 Bus1=186 Bus2=194 phases=3 Linecode=4c_.25 Length=4.2972 Units=m
New Line.LINE196 Bus1=191 Bus2=197 phases=3 Linecode=4c_.25 Length=3.3899 Units=m
New Line.LINE197 Bus1=191 Bus2=198 phases=3 Linecode=4c_.25 Length=3.3899 Units=m
New Line.LINE198 Bus1=191 Bus2=199 phases=3 Linecode=4c_.25 Length=3.3899 Units=m
New Line.LINE202 Bus1=197 Bus2=203 phases=3 Linecode=4c_.25 Length=1.3964 Units=m
New Line.LINE203 Bus1=197 Bus2=204 phases=3 Linecode=4c_.25 Length=1.3964 Units=m
New Line.LINE204 Bus1=197 Bus2=205 phases=3 Linecode=4c_.25 Length=1.3964 Units=m
New Line.LINE209 Bus1=203 Bus2=210 phases=3 Linecode=4c_.25 Length=3.0452 Units=m
New Line.LINE210 Bus1=203 Bus2=211 phases=3 Linecode=4c_.25 Length=3.0452 Units=m
New Line.LINE217 Bus1=215 Bus2=218 phases=3 Linecode=2c_.04 Length=3.0556 Units=m
New Line.LINE218 Bus1=215 Bus2=219 phases=3 Linecode=3c_.04 Length=3.0556 Units=m
New Line.LINE221 Bus1=217 Bus2=222 phases=3 Linecode=2c_.04 Length=4.7434 Units=m
New Line.LINE223 Bus1=218 Bus2=224 phases=3 Linecode=2c_.04 Length=0.32739 Units=m
New Line.LINE224 Bus1=218 Bus2=225 phases=3 Linecode=3c_.04 Length=0.32739 Units=m
New Line.LINE228 Bus1=224 Bus2=229 phases=3 Linecode=2c_.04 Length=0.21836 Units=m
New Line.LINE229 Bus1=224 Bus2=230 phases=3 Linecode=3c_.04 Length=0.21836 Units=m
New Line.LINE230 Bus1=226 Bus2=231 phases=3 Linecode=25_SAC_XC Length=4.8122 Units=m
New Line.LINE234 Bus1=229 Bus2=235 phases=3 Linecode=2c_.04 Length=0.44294 Units=m
New Line.LINE235 Bus1=229 Bus2=236 phases=3 Linecode=3c_.04 Length=0.44294 Units=m
New Line.LINE236 Bus1=231 Bus2=237 phases=3 Linecode=25_SAC_XC Length=4.5113 Units=m
New Line.LINE237 Bus1=231 Bus2=238 phases=3 Linecode=25_SAC_XC Length=4.5113 Units=m
New Line.LINE241 Bus1=235 Bus2=242 phases=3 Linecode=2c_.04 Length=0.033121 Units=m
New Line.LINE242 Bus1=235 Bus2=243 phases=3 Linecode=3c_.04 Length=0.033121 Units=m
New Line.LINE246 Bus1=242 Bus2=247 phases=3 Linecode=2c_.04 Length=0.032651 Units=m
New Line.LINE247 Bus1=242 Bus2=248 phases=3 Linecode=3c_.04 Length=0.032651 Units=m
New Line.LINE252 Bus1=247 Bus2=253 phases=3 Linecode=2c_.04 Length=0.032557 Units=m
New Line.LINE253 Bus1=247 Bus2=254 phases=3 Linecode=3c_.04 Length=0.032557 Units=m
New Line.LINE258 Bus1=253 Bus2=259 phases=3 Linecode=2c_.04 Length=1.7656 Units=m
New Line.LINE259 Bus1=253 Bus2=260 phases=3 Linecode=3c_.04 Length=1.7656 Units=m
New Line.LINE265 Bus1=259 Bus2=266 phases=3 Linecode=2c_.04 Length=7.8263 Units=m
New Line.LINE266 Bus1=259 Bus2=267 phases=3 Linecode=3c_.04 Length=7.8263 Units=m
New Line.LINE276 Bus1=270 Bus2=277 phases=3 Linecode=2c_.04 Length=5.6374 Units=m
New Line.LINE277 Bus1=270 Bus2=278 phases=3 Linecode=4c_.25 Length=9.6962 Units=m
New Line.LINE284 Bus1=277 Bus2=285 phases=3 Linecode=2c_.04 Length=4.0078 Units=m
New Line.LINE358 Bus1=349 Bus2=359 phases=3 Linecode=2c_.04 Length=3.7519 Units=m
New Line.LINE369 Bus1=361 Bus2=370 phases=3 Linecode=2c_.04 Length=4.2429 Units=m
New Line.LINE399 Bus1=390 Bus2=400 phases=3 Linecode=2c_.04 Length=3.7977 Units=m
New Line.LINE416 Bus1=407 Bus2=417 phases=3 Linecode=2c_.04 Length=5.0462 Units=m
New Line.LINE417 Bus1=407 Bus2=418 phases=3 Linecode=2c_.04 Length=0.31598 Units=m
New Line.LINE418 Bus1=407 Bus2=419 phases=3 Linecode=2c_.04 Length=0.31598 Units=m
New Line.LINE427 Bus1=415 Bus2=428 phases=3 Linecode=4c_25 Length=4.5067 Units=m
New Line.LINE429 Bus1=418 Bus2=430 phases=3 Linecode=2c_.04 Length=0.10208 Units=m
New Line.LINE430 Bus1=418 Bus2=431 phases=3 Linecode=2c_.04 Length=0.10208 Units=m
New Line.LINE439 Bus1=428 Bus2=440 phases=3 Linecode=2c_.04 Length=3.6921 Units=m
New Line.LINE440 Bus1=428 Bus2=441 phases=3 Linecode=4c_25 Length=3.7985 Units=m
New Line.LINE442 Bus1=430 Bus2=443 phases=3 Linecode=2c_.04 Length=0.35706 Units=m
New Line.LINE443 Bus1=430 Bus2=444 phases=3 Linecode=2c_.04 Length=0.35706 Units=m
New Line.LINE455 Bus1=441 Bus2=456 phases=3 Linecode=4c_25 Length=11.9206 Units=m
New Line.LINE457 Bus1=443 Bus2=458 phases=3 Linecode=2c_.04 Length=0.2908 Units=m
New Line.LINE458 Bus1=443 Bus2=459 phases=3 Linecode=2c_.04 Length=0.2908 Units=m
New Line.LINE470 Bus1=456 Bus2=471 phases=3 Linecode=2c_.04 Length=5.1083 Units=m
New Line.LINE473 Bus1=458 Bus2=474 phases=3 Linecode=2c_.04 Length=0.13515 Units=m
New Line.LINE474 Bus1=458 Bus2=475 phases=3 Linecode=2c_.04 Length=0.13515 Units=m
New Line.LINE485 Bus1=471 Bus2=486 phases=3 Linecode=2c_.04 Length=4.9069 Units=m
New Line.LINE489 Bus1=474 Bus2=490 phases=3 Linecode=2c_.04 Length=0.16181 Units=m
New Line.LINE490 Bus1=474 Bus2=491 phases=3 Linecode=2c_.04 Length=0.16181 Units=m
New Line.LINE505 Bus1=490 Bus2=506 phases=3 Linecode=2c_.04 Length=0.17361 Units=m
New Line.LINE506 Bus1=490 Bus2=507 phases=3 Linecode=2c_.04 Length=0.17361 Units=m
New Line.LINE519 Bus1=504 Bus2=520 phases=3 Linecode=4c_.25 Length=3.7228 Units=m
New Line.LINE521 Bus1=504 Bus2=522 phases=3 Linecode=4c_.25 Length=3.7228 Units=m
New Line.LINE523 Bus1=506 Bus2=524 phases=3 Linecode=2c_.04 Length=0.48474 Units=m
New Line.LINE524 Bus1=506 Bus2=525 phases=3 Linecode=2c_.04 Length=0.48474 Units=m
New Line.LINE537 Bus1=520 Bus2=538 phases=3 Linecode=4c_.25 Length=0.18984 Units=m
New Line.LINE538 Bus1=520 Bus2=539 phases=3 Linecode=4c_.25 Length=0.18984 Units=m
New Line.LINE541 Bus1=524 Bus2=542 phases=3 Linecode=2c_.04 Length=5.6278 Units=m
New Line.LINE542 Bus1=524 Bus2=543 phases=3 Linecode=2c_.04 Length=5.6278 Units=m
New Line.LINE554 Bus1=538 Bus2=555 phases=3 Linecode=4c_.25 Length=0.15535 Units=m
New Line.LINE555 Bus1=538 Bus2=556 phases=3 Linecode=4c_.25 Length=0.15535 Units=m
New Line.LINE558 Bus1=542 Bus2=559 phases=3 Linecode=2c_.04 Length=0.12204 Units=m
New Line.LINE559 Bus1=542 Bus2=560 phases=3 Linecode=2c_.04 Length=0.12204 Units=m
New Line.LINE562 Bus1=546 Bus2=563 phases=3 Linecode=2c_.04 Length=5.7062 Units=m
New Line.LINE563 Bus1=546 Bus2=564 phases=3 Linecode=2c_.04 Length=5.7062 Units=m
New Line.LINE571 Bus1=555 Bus2=572 phases=3 Linecode=4c_.25 Length=0.17465 Units=m
New Line.LINE572 Bus1=555 Bus2=573 phases=3 Linecode=4c_.25 Length=0.17465 Units=m
New Line.LINE575 Bus1=558 Bus2=576 phases=3 Linecode=4c_.12 Length=2.4883 Units=m
New Line.LINE576 Bus1=559 Bus2=577 phases=3 Linecode=2c_.04 Length=0.13396 Units=m
New Line.LINE577 Bus1=559 Bus2=578 phases=3 Linecode=2c_.04 Length=0.13396 Units=m
New Line.LINE587 Bus1=572 Bus2=588 phases=3 Linecode=4c_.25 Length=0.17576 Units=m
New Line.LINE588 Bus1=572 Bus2=589 phases=3 Linecode=4c_.25 Length=0.17576 Units=m
New Line.LINE593 Bus1=577 Bus2=594 phases=3 Linecode=2c_.04 Length=0.12489 Units=m
New Line.LINE594 Bus1=577 Bus2=595 phases=3 Linecode=2c_.04 Length=0.12489 Units=m
New Line.LINE604 Bus1=588 Bus2=605 phases=3 Linecode=4c_.25 Length=1.4454 Units=m
New Line.LINE605 Bus1=588 Bus2=606 phases=3 Linecode=4c_.25 Length=1.4454 Units=m
New Line.LINE610 Bus1=594 Bus2=611 phases=3 Linecode=2c_.04 Length=0.088 Units=m
New Line.LINE611 Bus1=594 Bus2=612 phases=3 Linecode=2c_.04 Length=0.088 Units=m
New Line.LINE619 Bus1=605 Bus2=620 phases=3 Linecode=4c_.25 Length=7.3826 Units=m
New Line.LINE620 Bus1=605 Bus2=621 phases=3 Linecode=4c_.25 Length=7.3826 Units=m
New Line.LINE626 Bus1=611 Bus2=627 phases=3 Linecode=2c_.04 Length=0.087966 Units=m
New Line.LINE627 Bus1=611 Bus2=628 phases=3 Linecode=2c_.04 Length=0.087966 Units=m
New Line.LINE635 Bus1=620 Bus2=636 phases=3 Linecode=4c_.25 Length=3.8554 Units=m
New Line.LINE636 Bus1=620 Bus2=637 phases=3 Linecode=4c_.25 Length=3.8554 Units=m
New Line.LINE642 Bus1=627 Bus2=643 phases=3 Linecode=2c_.04 Length=0.10379 Units=m
New Line.LINE643 Bus1=627 Bus2=644 phases=3 Linecode=2c_.04 Length=0.10379 Units=m
New Line.LINE651 Bus1=636 Bus2=652 phases=3 Linecode=4c_.25 Length=2.1897 Units=m
New Line.LINE652 Bus1=636 Bus2=653 phases=3 Linecode=4c_.25 Length=2.1897 Units=m
New Line.LINE657 Bus1=642 Bus2=658 phases=3 Linecode=4c_.12 Length=8.7156 Units=m
New Line.LINE659 Bus1=643 Bus2=660 phases=3 Linecode=2c_.04 Length=0.8472 Units=m
New Line.LINE661 Bus1=646 Bus2=662 phases=3 Linecode=2c_.04 Length=3.3098 Units=m
New Line.LINE662 Bus1=646 Bus2=663 phases=3 Linecode=2c_.04 Length=3.3098 Units=m
New Line.LINE669 Bus1=652 Bus2=670 phases=3 Linecode=4c_.25 Length=2.3459 Units=m
New Line.LINE670 Bus1=652 Bus2=671 phases=3 Linecode=4c_.25 Length=2.3459 Units=m
New Line.LINE676 Bus1=658 Bus2=677 phases=3 Linecode=2c_.04 Length=6.6899 Units=m
New Line.LINE686 Bus1=670 Bus2=687 phases=3 Linecode=4c_.25 Length=5.0156 Units=m
New Line.LINE688 Bus1=670 Bus2=689 phases=3 Linecode=4c_.25 Length=5.0156 Units=m
New Line.LINE695 Bus1=677 Bus2=696 phases=3 Linecode=2c_.04 Length=0.52619 Units=m
New Line.LINE702 Bus1=687 Bus2=703 phases=3 Linecode=4c_.25 Length=3.7547 Units=m
New Line.LINE703 Bus1=687 Bus2=704 phases=3 Linecode=4c_.25 Length=3.7547 Units=m
New Line.LINE712 Bus1=699 Bus2=713 phases=3 Linecode=2c_.04 Length=3.0635 Units=m
New Line.LINE713 Bus1=699 Bus2=714 phases=3 Linecode=2c_.04 Length=3.0635 Units=m
New Line.LINE719 Bus1=703 Bus2=720 phases=3 Linecode=4c_.25 Length=2.3562 Units=m
New Line.LINE720 Bus1=703 Bus2=721 phases=3 Linecode=4c_.25 Length=2.3562 Units=m
New Line.LINE728 Bus1=711 Bus2=729 phases=3 Linecode=4c_.12 Length=1.5126 Units=m
New Line.LINE734 Bus1=720 Bus2=735 phases=3 Linecode=4c_.25 Length=19.1584 Units=m
New Line.LINE735 Bus1=720 Bus2=736 phases=3 Linecode=4c_.25 Length=19.1584 Units=m
New Line.LINE738 Bus1=723 Bus2=739 phases=3 Linecode=4c_.04 Length=0.56268 Units=m
New Line.LINE748 Bus1=735 Bus2=749 phases=3 Linecode=4c_.04 Length=6.2096 Units=m
New Line.LINE749 Bus1=735 Bus2=750 phases=3 Linecode=4c_.25 Length=9.6528 Units=m
New Line.LINE750 Bus1=735 Bus2=751 phases=3 Linecode=4c_.25 Length=9.6528 Units=m
New Line.LINE767 Bus1=750 Bus2=768 phases=3 Linecode=4c_.25 Length=2.2214 Units=m
New Line.LINE785 Bus1=768 Bus2=786 phases=3 Linecode=4c_.25 Length=20.4237 Units=m
New Line.LINE786 Bus1=768 Bus2=787 phases=3 Linecode=4c_.25 Length=20.4237 Units=m
New Line.LINE787 Bus1=768 Bus2=788 phases=3 Linecode=4c_.25 Length=0.62473 Units=m
New Line.LINE798 Bus1=778 Bus2=799 phases=3 Linecode=4c_.12 Length=0.83143 Units=m
New Line.LINE806 Bus1=786 Bus2=807 phases=3 Linecode=4c_.25 Length=11.3485 Units=m
New Line.LINE808 Bus1=786 Bus2=809 phases=3 Linecode=4c_.25 Length=11.3485 Units=m
New Line.LINE810 Bus1=789 Bus2=811 phases=3 Linecode=4c_.04 Length=2.3127 Units=m
New Line.LINE819 Bus1=797 Bus2=820 phases=3 Linecode=2c_.04 Length=0.77742 Units=m
New Line.LINE822 Bus1=799 Bus2=823 phases=3 Linecode=4c_.12 Length=3.2854 Units=m
New Line.LINE830 Bus1=807 Bus2=831 phases=3 Linecode=4c_.25 Length=19.2085 Units=m
New Line.LINE832 Bus1=807 Bus2=833 phases=3 Linecode=4c_.25 Length=19.2085 Units=m
New Line.LINE835 Bus1=811 Bus2=836 phases=3 Linecode=2c_.04 Length=1.0004 Units=m
New Line.LINE879 Bus1=854 Bus2=880 phases=3 Linecode=2c_.04 Length=3.8384 Units=m
New Line.LINE910 Bus1=885 Bus2=911 phases=3 Linecode=4c_.06 Length=4.5829 Units=m
New Line.LINE999 Bus1=969 Bus2=1000 phases=3 Linecode=4c_.06 Length=6.1071 Units=m
New Line.LINE1030 Bus1=1000 Bus2=1031 phases=3 Linecode=4c_.06 Length=8.9765 Units=m
New Line.LINE1037 Bus1=1006 Bus2=1038 phases=3 Linecode=2c_.04 Length=4.8005 Units=m
New Line.LINE1039 Bus1=1007 Bus2=1040 phases=3 Linecode=2c_.04 Length=4.6758 Units=m
New Line.LINE1042 Bus1=1009 Bus2=1043 phases=3 Linecode=2c_.04 Length=5.8102 Units=m
New Line.LINE1064 Bus1=1031 Bus2=1065 phases=3 Linecode=4c_.06 Length=9.6215 Units=m
New Line.LINE1098 Bus1=1065 Bus2=1099 phases=3 Linecode=4c_.06 Length=6.6308 Units=m
New Line.LINE1110 Bus1=1076 Bus2=1111 phases=3 Linecode=2c_.04 Length=5.7671 Units=m
New Line.LINE1111 Bus1=1076 Bus2=1112 phases=3 Linecode=2c_.04 Length=6.6783 Units=m
New Line.LINE1112 Bus1=1076 Bus2=1113 phases=3 Linecode=2c_.04 Length=0.1636 Units=m
New Line.LINE1113 Bus1=1076 Bus2=1114 phases=3 Linecode=2c_.04 Length=0.1636 Units=m
New Line.LINE1117 Bus1=1080 Bus2=1118 phases=3 Linecode=2c_.04 Length=5.2177 Units=m
New Line.LINE1136 Bus1=1099 Bus2=1137 phases=3 Linecode=2c_.04 Length=8.4176 Units=m
New Line.LINE1145 Bus1=1108 Bus2=1146 phases=3 Linecode=2c_.04 Length=6.0387 Units=m
New Line.LINE1146 Bus1=1108 Bus2=1147 phases=3 Linecode=2c_.04 Length=4.0203 Units=m
New Line.LINE1149 Bus1=1113 Bus2=1150 phases=3 Linecode=2c_.04 Length=0.18313 Units=m
New Line.LINE1150 Bus1=1113 Bus2=1151 phases=3 Linecode=2c_.04 Length=0.18313 Units=m
New Line.LINE1155 Bus1=1120 Bus2=1156 phases=3 Linecode=2c_.04 Length=6.0191 Units=m
New Line.LINE1182 Bus1=1147 Bus2=1183 phases=3 Linecode=2c_.04 Length=6.335 Units=m
New Line.LINE1186 Bus1=1150 Bus2=1187 phases=3 Linecode=2c_.04 Length=0.18815 Units=m
New Line.LINE1187 Bus1=1150 Bus2=1188 phases=3 Linecode=2c_.04 Length=0.18815 Units=m
New Line.LINE1201 Bus1=1167 Bus2=1202 phases=3 Linecode=2c_.04 Length=4.5689 Units=m
New Line.LINE1203 Bus1=1168 Bus2=1204 phases=3 Linecode=2c_.04 Length=3.0538 Units=m
New Line.LINE1220 Bus1=1187 Bus2=1221 phases=3 Linecode=2c_.04 Length=0.12594 Units=m
New Line.LINE1221 Bus1=1187 Bus2=1222 phases=3 Linecode=2c_.04 Length=0.12594 Units=m
New Line.LINE1236 Bus1=1206 Bus2=1237 phases=3 Linecode=2c_.04 Length=3.2669 Units=m
New Line.LINE1252 Bus1=1221 Bus2=1253 phases=3 Linecode=2c_.04 Length=0.2318 Units=m
New Line.LINE1253 Bus1=1221 Bus2=1254 phases=3 Linecode=2c_.04 Length=0.2318 Units=m
New Line.LINE1273 Bus1=1246 Bus2=1274 phases=3 Linecode=2c_.04 Length=2.6936 Units=m
New Line.LINE1281 Bus1=1253 Bus2=1282 phases=3 Linecode=2c_.04 Length=0.36323 Units=m
New Line.LINE1282 Bus1=1253 Bus2=1283 phases=3 Linecode=2c_.04 Length=0.36323 Units=m
New Line.LINE1287 Bus1=1260 Bus2=1288 phases=3 Linecode=3c_.04 Length=4.2924 Units=m
New Line.LINE1289 Bus1=1261 Bus2=1290 phases=3 Linecode=3c_.04 Length=3.8604 Units=m
New Line.LINE1303 Bus1=1276 Bus2=1304 phases=3 Linecode=2c_.04 Length=2.8265 Units=m
New Line.LINE1309 Bus1=1282 Bus2=1310 phases=3 Linecode=2c_.04 Length=0.25248 Units=m
New Line.LINE1310 Bus1=1282 Bus2=1311 phases=3 Linecode=2c_.04 Length=0.25248 Units=m
New Line.LINE1319 Bus1=1294 Bus2=1320 phases=3 Linecode=2c_.04 Length=5.8506 Units=m
New Line.LINE1320 Bus1=1294 Bus2=1321 phases=3 Linecode=2c_.04 Length=5.8506 Units=m
New Line.LINE1324 Bus1=1298 Bus2=1325 phases=3 Linecode=2c_.04 Length=5.224 Units=m
New Line.LINE1340 Bus1=1310 Bus2=1341 phases=3 Linecode=2c_.04 Length=0.1287 Units=m
New Line.LINE1341 Bus1=1310 Bus2=1342 phases=3 Linecode=2c_.04 Length=0.1287 Units=m
New Line.LINE1367 Bus1=1341 Bus2=1368 phases=3 Linecode=2c_.04 Length=0.28925 Units=m
New Line.LINE1368 Bus1=1341 Bus2=1369 phases=3 Linecode=2c_.04 Length=0.28925 Units=m
New Line.LINE1380 Bus1=1355 Bus2=1381 phases=3 Linecode=2c_.04 Length=4.5288 Units=m
New Line.LINE1394 Bus1=1368 Bus2=1395 phases=3 Linecode=2c_.04 Length=0.57685 Units=m
New Line.LINE1395 Bus1=1368 Bus2=1396 phases=3 Linecode=2c_.04 Length=0.57685 Units=m
New Line.LINE1420 Bus1=1395 Bus2=1421 phases=3 Linecode=2c_.04 Length=0.21038 Units=m
New Line.LINE1421 Bus1=1395 Bus2=1422 phases=3 Linecode=2c_.04 Length=0.21038 Units=m
New Line.LINE1433 Bus1=1409 Bus2=1434 phases=3 Linecode=2c_.04 Length=5.0638 Units=m
New Line.LINE1434 Bus1=1409 Bus2=1435 phases=3 Linecode=2c_.04 Length=4.0698 Units=m
New Line.LINE1445 Bus1=1421 Bus2=1446 phases=3 Linecode=2c_.04 Length=0.20498 Units=m
New Line.LINE1446 Bus1=1421 Bus2=1447 phases=3 Linecode=2c_.04 Length=0.20498 Units=m
New Line.LINE1457 Bus1=1435 Bus2=1458 phases=3 Linecode=2c_.04 Length=6.3638 Units=m
New Line.LINE1468 Bus1=1446 Bus2=1469 phases=3 Linecode=2c_.04 Length=0.51145 Units=m
New Line.LINE1469 Bus1=1446 Bus2=1470 phases=3 Linecode=2c_.04 Length=0.51145 Units=m
New Line.LINE1490 Bus1=1469 Bus2=1491 phases=3 Linecode=2c_.04 Length=13.1077 Units=m
New Line.LINE1491 Bus1=1469 Bus2=1492 phases=3 Linecode=2c_.04 Length=13.1077 Units=m
New Line.LINE1511 Bus1=1491 Bus2=1512 phases=3 Linecode=2c_.04 Length=1.4901 Units=m
New Line.LINE1512 Bus1=1491 Bus2=1513 phases=3 Linecode=2c_.04 Length=1.4901 Units=m
New Line.LINE1532 Bus1=1512 Bus2=1533 phases=3 Linecode=2c_.04 Length=0.16144 Units=m
New Line.LINE1533 Bus1=1512 Bus2=1534 phases=3 Linecode=2c_.04 Length=0.16144 Units=m
New Line.LINE1544 Bus1=1525 Bus2=1545 phases=3 Linecode=2c_.04 Length=3.7916 Units=m
New Line.LINE1545 Bus1=1525 Bus2=1546 phases=3 Linecode=2c_.04 Length=3.7916 Units=m
New Line.LINE1547 Bus1=1526 Bus2=1548 phases=3 Linecode=2c_.04 Length=7.6123 Units=m
New Line.LINE1548 Bus1=1526 Bus2=1549 phases=3 Linecode=2c_.04 Length=7.6123 Units=m
New Line.LINE1556 Bus1=1533 Bus2=1557 phases=3 Linecode=2c_.04 Length=0.046862 Units=m
New Line.LINE1557 Bus1=1533 Bus2=1558 phases=3 Linecode=2c_.04 Length=0.046862 Units=m
New Line.LINE1573 Bus1=1557 Bus2=1574 phases=3 Linecode=2c_.04 Length=0.064621 Units=m
New Line.LINE1574 Bus1=1557 Bus2=1575 phases=3 Linecode=2c_.04 Length=0.064621 Units=m
New Line.LINE1587 Bus1=1570 Bus2=1588 phases=3 Linecode=3c_300_SAC Length=7.2529 Units=m
New Line.LINE1591 Bus1=1574 Bus2=1592 phases=3 Linecode=2c_.04 Length=0.078001 Units=m
New Line.LINE1592 Bus1=1574 Bus2=1593 phases=3 Linecode=2c_.04 Length=0.078001 Units=m
New Line.LINE1598 Bus1=1581 Bus2=1599 phases=3 Linecode=2c_.04 Length=4.2036 Units=m
New Line.LINE1599 Bus1=1581 Bus2=1600 phases=3 Linecode=2c_.04 Length=4.2036 Units=m
New Line.LINE1612 Bus1=1592 Bus2=1613 phases=3 Linecode=2c_.04 Length=0.084852 Units=m
New Line.LINE1613 Bus1=1592 Bus2=1614 phases=3 Linecode=2c_.04 Length=0.084852 Units=m
New Line.LINE1630 Bus1=1613 Bus2=1631 phases=3 Linecode=2c_.04 Length=1.1764 Units=m
New Line.LINE1631 Bus1=1613 Bus2=1632 phases=3 Linecode=2c_.04 Length=1.1764 Units=m
New Line.LINE1636 Bus1=1619 Bus2=1637 phases=3 Linecode=2c_.04 Length=3.5267 Units=m
New Line.LINE1637 Bus1=1619 Bus2=1638 phases=3 Linecode=2c_.04 Length=3.5267 Units=m
New Line.LINE1649 Bus1=1631 Bus2=1650 phases=3 Linecode=2c_.04 Length=0.061773 Units=m
New Line.LINE1650 Bus1=1631 Bus2=1651 phases=3 Linecode=2c_.04 Length=0.061773 Units=m
New Line.LINE1666 Bus1=1650 Bus2=1667 phases=3 Linecode=2c_.04 Length=0.048375 Units=m
New Line.LINE1667 Bus1=1650 Bus2=1668 phases=3 Linecode=2c_.04 Length=0.048375 Units=m
New Line.LINE1670 Bus1=1654 Bus2=1671 phases=3 Linecode=2c_.04 Length=4.48 Units=m
New Line.LINE1671 Bus1=1654 Bus2=1672 phases=3 Linecode=2c_.04 Length=4.48 Units=m
New Line.LINE1681 Bus1=1667 Bus2=1682 phases=3 Linecode=2c_.04 Length=0.054331 Units=m
New Line.LINE1682 Bus1=1667 Bus2=1683 phases=3 Linecode=2c_.04 Length=0.054331 Units=m
New Line.LINE1683 Bus1=1669 Bus2=1684 phases=3 Linecode=2c_.04 Length=5.3588 Units=m
New Line.LINE1694 Bus1=1682 Bus2=1695 phases=3 Linecode=2c_.04 Length=0.059304 Units=m
New Line.LINE1695 Bus1=1682 Bus2=1696 phases=3 Linecode=2c_.04 Length=0.059304 Units=m
New Line.LINE1706 Bus1=1695 Bus2=1707 phases=3 Linecode=2c_.04 Length=0.043267 Units=m
New Line.LINE1707 Bus1=1695 Bus2=1708 phases=3 Linecode=2c_.04 Length=0.043267 Units=m
New Line.LINE1717 Bus1=1707 Bus2=1718 phases=3 Linecode=2c_.04 Length=0.089196 Units=m
New Line.LINE1718 Bus1=1707 Bus2=1719 phases=3 Linecode=2c_.04 Length=0.089196 Units=m
New Line.LINE1720 Bus1=1710 Bus2=1721 phases=3 Linecode=2c_.04 Length=4.8997 Units=m
New Line.LINE1721 Bus1=1710 Bus2=1722 phases=3 Linecode=2c_.04 Length=4.8997 Units=m
New Line.LINE1729 Bus1=1718 Bus2=1730 phases=3 Linecode=2c_.04 Length=0.076837 Units=m
New Line.LINE1730 Bus1=1718 Bus2=1731 phases=3 Linecode=2c_.04 Length=0.076837 Units=m
New Line.LINE1738 Bus1=1729 Bus2=1739 phases=3 Linecode=3c_300_SAC Length=1.0334 Units=m
New Line.LINE1739 Bus1=1730 Bus2=1740 phases=3 Linecode=2c_.04 Length=0.57436 Units=m
New Line.LINE1740 Bus1=1730 Bus2=1741 phases=3 Linecode=2c_.04 Length=0.57436 Units=m
New Line.LINE1746 Bus1=1740 Bus2=1747 phases=3 Linecode=2c_.04 Length=5.3444 Units=m
New Line.LINE1826 Bus1=1822 Bus2=1827 phases=3 Linecode=3c_95_SAC_XC Length=1.7735 Units=m
New Line.LINE1955 Bus1=1939 Bus2=1956 phases=3 Linecode=3c_95_SAC_XC Length=1.5346 Units=m
New Line.LINE1992 Bus1=1977 Bus2=1993 phases=3 Linecode=35_SAC_PSC Length=6.6907 Units=m
New Line.LINE1993 Bus1=1977 Bus2=1994 phases=3 Linecode=35_SAC_PSC Length=17.9923 Units=m
New Line.LINE1996 Bus1=1979 Bus2=1997 phases=3 Linecode=35_SAC_PC Length=7.0136 Units=m
New Line.LINE1997 Bus1=1979 Bus2=1998 phases=3 Linecode=35_SAC_PC Length=5.8575 Units=m
New Line.LINE2011 Bus1=1993 Bus2=2012 phases=3 Linecode=35_SAC_PSC Length=7.2737 Units=m
New Line.LINE2012 Bus1=1993 Bus2=2013 phases=3 Linecode=35_SAC_PSC Length=21.2435 Units=m
New Line.LINE2013 Bus1=1993 Bus2=2014 phases=3 Linecode=35_SAC_PSC Length=4.352 Units=m
New Line.LINE2014 Bus1=1993 Bus2=2015 phases=3 Linecode=35_SAC_PSC Length=4.6763 Units=m
New Line.LINE2033 Bus1=2014 Bus2=2034 phases=3 Linecode=35_SAC_PSC Length=4.0137 Units=m
New Line.LINE2200 Bus1=2190 Bus2=2201 phases=3 Linecode=3c_95_SAC_XC Length=13.247 Units=m
New Line.LINE2253 Bus1=2246 Bus2=2254 phases=3 Linecode=35_SAC_PC Length=31.0764 Units=m
New Line.LINE2254 Bus1=2246 Bus2=2255 phases=3 Linecode=35_SAC_PC Length=24.2773 Units=m
New Line.LINE2255 Bus1=2246 Bus2=2256 phases=3 Linecode=35_SAC_PC Length=31.1183 Units=m
New Line.LINE2256 Bus1=2246 Bus2=2257 phases=3 Linecode=35_SAC_PC Length=31.4189 Units=m
New Line.LINE2257 Bus1=2246 Bus2=2258 phases=3 Linecode=35_SAC_PC Length=4.9646 Units=m
New Line.LINE2258 Bus1=2246 Bus2=2259 phases=3 Linecode=35_SAC_PC Length=20.4021 Units=m
New Line.LINE2259 Bus1=2246 Bus2=2260 phases=3 Linecode=35_SAC_PC Length=24.4949 Units=m
New Line.LINE2260 Bus1=2246 Bus2=2261 phases=3 Linecode=35_SAC_PC Length=30.9248 Units=m
New Line.LINE2261 Bus1=2246 Bus2=2262 phases=3 Linecode=35_SAC_PC Length=19.9457 Units=m
New Line.LINE2262 Bus1=2246 Bus2=2263 phases=3 Linecode=35_SAC_PC Length=24.1998 Units=m
New Line.LINE2263 Bus1=2246 Bus2=2264 phases=3 Linecode=35_SAC_PC Length=31.3747 Units=m
New Line.LINE2264 Bus1=2246 Bus2=2265 phases=3 Linecode=35_SAC_PC Length=7.212 Units=m
New Line.LINE2265 Bus1=2246 Bus2=2266 phases=3 Linecode=35_SAC_PC Length=31.2339 Units=m
New Line.LINE2266 Bus1=2246 Bus2=2267 phases=3 Linecode=35_SAC_PC Length=7.0396 Units=m
New Line.LINE2267 Bus1=2246 Bus2=2268 phases=3 Linecode=35_SAC_PC Length=5.2095 Units=m
New Line.LINE2268 Bus1=2246 Bus2=2269 phases=3 Linecode=35_SAC_PC Length=24.4363 Units=m
New Line.LINE2279 Bus1=2256 Bus2=2280 phases=3 Linecode=35_SAC_PC Length=0.16003 Units=m
New Line.LINE2322 Bus1=2299 Bus2=2323 phases=3 Linecode=3c_95_SAC_XC Length=13.8503 Units=m
New Line.LINE2433 Bus1=2427 Bus2=2434 phases=3 Linecode=35_SAC_PC Length=0.23369 Units=m
New Line.LINE2435 Bus1=2427 Bus2=2436 phases=3 Linecode=3c_95_SAC_XC Length=0.4329 Units=m
New Line.LINECmpd_0 Bus1=750 Bus2=1239 phases=3 Linecode=2c_.007 Length=5.970099 Units=m
New Line.LINECmpd_1 Bus1=811 Bus2=1009 phases=3 Linecode=2c_.04 Length=7.47223 Units=m
New Line.LINECmpd_2 Bus1=1120 Bus2=1710 phases=3 Linecode=2c_.04 Length=17.749585 Units=m
New Line.LINECmpd_3 Bus1=1307 Bus2=1553 phases=3 Linecode=35_SAC_PC Length=12.96614 Units=m
New Line.LINECmpd_4 Bus1=646 Bus2=1403 phases=3 Linecode=2c_.04 Length=19.576104 Units=m
New Line.LINECmpd_5 Bus1=266 Bus2=680 phases=3 Linecode=2c_.04 Length=16.216823 Units=m
New Line.LINECmpd_6 Bus1=1807 Bus2=1923 phases=3 Linecode=3c_95_SAC_XC Length=44.505932 Units=m
New Line.LINECmpd_7 Bus1=2299 Bus2=2420 phases=3 Linecode=35_SAC_PC Length=0.507358 Units=m
New Line.LINECmpd_8 Bus1=1065 Bus2=1409 phases=3 Linecode=2c_.04 Length=16.54123 Units=m
New Line.LINECmpd_9 Bus1=901 Bus2=1088 phases=3 Linecode=2c_.04 Length=8.242282 Units=m
New Line.LINECmpd_10 Bus1=723 Bus2=1257 phases=3 Linecode=4_XSC Length=4.521648 Units=m
New Line.LINECmpd_11 Bus1=687 Bus2=1541 phases=3 Linecode=4_XC Length=8.840154 Units=m
New Line.LINECmpd_12 Bus1=1009 Bus2=1669 phases=3 Linecode=2c_.04 Length=12.13176 Units=m
New Line.LINECmpd_13 Bus1=1581 Bus2=1803 phases=3 Linecode=2c_.04 Length=30.872438 Units=m
New Line.LINECmpd_14 Bus1=1080 Bus2=1654 phases=3 Linecode=2c_.04 Length=19.379128 Units=m
New Line.LINECmpd_15 Bus1=2015 Bus2=2077 phases=3 Linecode=35_SAC_PSC Length=0.393712 Units=m
New Line.LINECmpd_16 Bus1=789 Bus2=1076 phases=3 Linecode=2c_.04 Length=9.60607 Units=m
New Line.LINECmpd_17 Bus1=670 Bus2=1732 phases=3 Linecode=4_XSC Length=28.269024 Units=m
New Line.LINECmpd_18 Bus1=1000 Bus2=1482 phases=3 Linecode=4c_.06 Length=7.060605 Units=m
New Line.LINECmpd_19 Bus1=1939 Bus2=2048 phases=3 Linecode=35_SAC_PSC Length=7.04344 Units=m
New Line.LINECmpd_20 Bus1=385 Bus2=558 phases=3 Linecode=4c_.12 Length=9.24828 Units=m
New Line.LINECmpd_21 Bus1=278 Bus2=324 phases=3 Linecode=4c_.25 Length=1.194055 Units=m
New Line.LINECmpd_22 Bus1=2263 Bus2=2433 phases=3 Linecode=35_SAC_PC Length=2.199317 Units=m
New Line.LINECmpd_23 Bus1=186 Bus2=289 phases=3 Linecode=2c_.007 Length=1.783333 Units=m
New Line.LINECmpd_24 Bus1=1525 Bus2=1736 phases=3 Linecode=2c_.04 Length=21.41602 Units=m
New Line.LINECmpd_25 Bus1=2323 Bus2=2429 phases=3 Linecode=3c_95_SAC_XC Length=2.63155 Units=m
New Line.LINECmpd_26 Bus1=361 Bus2=546 phases=3 Linecode=2c_.04 Length=9.402064 Units=m
New Line.LINECmpd_27 Bus1=1147 Bus2=1666 phases=3 Linecode=2c_.04 Length=27.03932 Units=m
New Line.LINECmpd_28 Bus1=256 Bus2=548 phases=3 Linecode=2c_.007 Length=7.538436 Units=m
New Line.LINECmpd_29 Bus1=1435 Bus2=1751 phases=3 Linecode=2c_.04 Length=21.63875 Units=m
New Line.LINECmpd_30 Bus1=1307 Bus2=1570 phases=3 Linecode=3c_300_SAC Length=16.305759 Units=m
New Line.LINECmpd_31 Bus1=1006 Bus2=1280 phases=3 Linecode=2c_.04 Length=13.52229 Units=m
New Line.LINECmpd_32 Bus1=711 Bus2=1085 phases=3 Linecode=35_SAC_XC Length=25.60652 Units=m
New Line.LINECmpd_33 Bus1=885 Bus2=1333 phases=3 Linecode=2c_.007 Length=1.993026 Units=m
New Line.LINECmpd_34 Bus1=349 Bus2=646 phases=3 Linecode=2c_.04 Length=7.572651 Units=m
New Line.LINECmpd_35 Bus1=390 Bus2=699 phases=3 Linecode=2c_.04 Length=9.589128 Units=m
New Line.LINECmpd_36 Bus1=485 Bus2=685 phases=3 Linecode=2c_.04 Length=13.244386 Units=m
New Line.LINECmpd_37 Bus1=1307 Bus2=1554 phases=3 Linecode=35_SAC_PC Length=14.06443 Units=m
New Line.LINECmpd_38 Bus1=2021 Bus2=2202 phases=3 Linecode=3c_95_SAC_XC Length=4.54065 Units=m
New Line.LINECmpd_39 Bus1=1789 Bus2=1859 phases=3 Linecode=3c_95_SAC_XC Length=12.74489 Units=m
New Line.LINECmpd_40 Bus1=2255 Bus2=2431 phases=3 Linecode=35_SAC_PC Length=2.80581 Units=m
New Line.LINECmpd_41 Bus1=2266 Bus2=2404 phases=3 Linecode=35_SAC_PC Length=1.370054 Units=m
New Line.LINECmpd_42 Bus1=1859 Bus2=2091 phases=3 Linecode=35_SAC_PSC Length=10.04085 Units=m
New Line.LINECmpd_43 Bus1=1526 Bus2=1761 phases=3 Linecode=2c_.04 Length=22.39228 Units=m
New Line.LINECmpd_44 Bus1=1 Bus2=30 phases=3 Linecode=3c_300_SAC_XC Length=13.997696 Units=m
New Line.LINECmpd_45 Bus1=471 Bus2=732 phases=3 Linecode=2c_.04 Length=13.272528 Units=m
New Line.LINECmpd_46 Bus1=2259 Bus2=2400 phases=3 Linecode=35_SAC_PC Length=0.648468 Units=m
New Line.LINECmpd_47 Bus1=2299 Bus2=2393 phases=3 Linecode=35_SAC_PC Length=0.421916 Units=m
New Line.LINECmpd_48 Bus1=2014 Bus2=2124 phases=3 Linecode=35_SAC_PSC Length=0.706346 Units=m
New Line.LINECmpd_49 Bus1=1260 Bus2=1619 phases=3 Linecode=2c_.04 Length=9.423369 Units=m
New Line.LINECmpd_50 Bus1=415 Bus2=716 phases=3 Linecode=4_XSC Length=5.108348 Units=m
New Line.LINECmpd_51 Bus1=324 Bus2=531 phases=3 Linecode=4_XSC Length=2.248022 Units=m
New Line.LINECmpd_52 Bus1=711 Bus2=1197 phases=3 Linecode=35_SAC_XC Length=14.993958 Units=m
New Line.LINECmpd_53 Bus1=440 Bus2=601 phases=3 Linecode=2c_.04 Length=11.987708 Units=m
New Line.LINECmpd_54 Bus1=814 Bus2=1120 phases=3 Linecode=2c_.04 Length=12.598754 Units=m
New Line.LINECmpd_55 Bus1=749 Bus2=1206 phases=3 Linecode=2c_.04 Length=10.820667 Units=m
New Line.LINECmpd_56 Bus1=504 Bus2=723 phases=3 Linecode=4c_.04 Length=15.548843 Units=m
New Line.LINECmpd_57 Bus1=969 Bus2=1431 phases=3 Linecode=4_XC Length=1.248146 Units=m
New Line.LINECmpd_58 Bus1=293 Bus2=361 phases=3 Linecode=2c_.04 Length=2.351682 Units=m
New Line.LINECmpd_59 Bus1=2427 Bus2=2438 phases=3 Linecode=35_SAC_PC Length=0.33349 Units=m
New Line.LINECmpd_60 Bus1=2260 Bus2=2439 phases=3 Linecode=35_SAC_PC Length=3.59494 Units=m
New Line.LINECmpd_61 Bus1=1827 Bus2=1979 phases=3 Linecode=35_SAC_PC Length=11.472533 Units=m
New Line.LINECmpd_62 Bus1=1276 Bus2=1526 phases=3 Linecode=2c_.04 Length=8.8541 Units=m
New Line.LINECmpd_63 Bus1=1307 Bus2=1664 phases=3 Linecode=35_SAC_PC Length=16.65351 Units=m
New Line.LINECmpd_64 Bus1=1789 Bus2=1807 phases=3 Linecode=3c_240_SAC_XC Length=18.13877 Units=m
New Line.LINECmpd_65 Bus1=1923 Bus2=2430 phases=3 Linecode=35_SAC_PC Length=18.332372 Units=m
New Line.LINECmpd_66 Bus1=485 Bus2=684 phases=3 Linecode=2c_.04 Length=9.680182 Units=m
New Line.LINECmpd_67 Bus1=1859 Bus2=2193 phases=3 Linecode=35_SAC_PSC Length=18.741149 Units=m
New Line.LINECmpd_68 Bus1=610 Bus2=656 phases=3 Linecode=2c_.04 Length=6.7607 Units=m
New Line.LINECmpd_69 Bus1=2250 Bus2=2299 phases=3 Linecode=3c_95_SAC_XC Length=1.71266 Units=m
New Line.LINECmpd_70 Bus1=749 Bus2=1168 phases=3 Linecode=2c_.04 Length=10.79116 Units=m
New Line.LINECmpd_71 Bus1=861 Bus2=1007 phases=3 Linecode=2c_.04 Length=11.48632 Units=m
New Line.LINECmpd_72 Bus1=642 Bus2=1230 phases=3 Linecode=4_XSC Length=2.617723 Units=m
New Line.LINECmpd_73 Bus1=576 Bus2=724 phases=3 Linecode=2c_.04 Length=14.580207 Units=m
New Line.LINECmpd_74 Bus1=1167 Bus2=1725 phases=3 Linecode=2c_.04 Length=20.004322 Units=m
New Line.LINECmpd_75 Bus1=558 Bus2=639 phases=3 Linecode=4c_.0225 Length=0.918313 Units=m
New Line.LINECmpd_76 Bus1=266 Bus2=349 phases=3 Linecode=2c_.04 Length=2.317077 Units=m
New Line.LINECmpd_77 Bus1=814 Bus2=1080 phases=3 Linecode=2c_.04 Length=2.59796 Units=m
New Line.LINECmpd_78 Bus1=1923 Bus2=2021 phases=3 Linecode=3c_95_SAC_XC Length=9.54774 Units=m
New Line.LINECmpd_79 Bus1=1033 Bus2=1246 phases=3 Linecode=2c_.04 Length=2.19812 Units=m
New Line.LINECmpd_80 Bus1=177 Bus2=217 phases=3 Linecode=2c_.04 Length=10.074 Units=m
New Line.LINECmpd_81 Bus1=773 Bus2=1049 phases=3 Linecode=2c_.04 Length=23.768618 Units=m
New Line.LINECmpd_82 Bus1=914 Bus2=1108 phases=3 Linecode=2c_.04 Length=10.64586 Units=m
New Line.LINECmpd_83 Bus1=2318 Bus2=2407 phases=3 Linecode=3c_95_SAC_XC Length=0.644999 Units=m
New Line.LINECmpd_84 Bus1=1031 Bus2=1410 phases=3 Linecode=4_PC Length=2.955203 Units=m
New Line.LINECmpd_85 Bus1=911 Bus2=1033 phases=3 Linecode=4c_.04 Length=25.6434 Units=m
New Line.LINECmpd_86 Bus1=1033 Bus2=1276 phases=3 Linecode=2c_.04 Length=2.07147 Units=m
New Line.LINECmpd_87 Bus1=1588 Bus2=1729 phases=3 Linecode=3c_300_SAC Length=18.7249 Units=m
New Line.LINECmpd_88 Bus1=2269 Bus2=2427 phases=3 Linecode=35_SAC_PC Length=3.374967 Units=m
New Line.LINECmpd_89 Bus1=1246 Bus2=1525 phases=3 Linecode=2c_.04 Length=7.73502 Units=m
New Line.LINECmpd_90 Bus1=277 Bus2=465 phases=3 Linecode=2c_.04 Length=18.561827 Units=m
New Line.LINECmpd_91 Bus1=1710 Bus2=1784 phases=3 Linecode=2c_.04 Length=15.84442 Units=m
New Line.LINECmpd_92 Bus1=1939 Bus2=2171 phases=3 Linecode=35_SAC_PSC Length=8.13222 Units=m
New Line.LINECmpd_93 Bus1=2265 Bus2=2385 phases=3 Linecode=35_SAC_PC Length=0.553119 Units=m
New Line.LINECmpd_94 Bus1=1783 Bus2=1897 phases=3 Linecode=3c_95_SAC_ASN Length=14.98649 Units=m
New Line.LINECmpd_95 Bus1=1307 Bus2=1717 phases=3 Linecode=35_SAC_PC Length=18.22176 Units=m
New Line.LINECmpd_96 Bus1=113 Bus2=153 phases=3 Linecode=4_XSC Length=14.278062 Units=m
New Line.LINECmpd_97 Bus1=901 Bus2=1162 phases=3 Linecode=2c_.04 Length=11.47503 Units=m
New Line.LINECmpd_98 Bus1=2261 Bus2=2425 phases=3 Linecode=35_SAC_PC Length=1.54822 Units=m
New Line.LINECmpd_99 Bus1=656 Bus2=693 phases=3 Linecode=2c_.04 Length=7.1453 Units=m
New Line.LINECmpd_100 Bus1=1783 Bus2=1789 phases=3 Linecode=3c_240_SAC_XC Length=9.0491 Units=m
New Line.LINECmpd_101 Bus1=2190 Bus2=2246 phases=3 Linecode=35_SAC_PC Length=25.97547 Units=m
New Line.LINECmpd_102 Bus1=699 Bus2=1294 phases=3 Linecode=2c_.04 Length=24.949057 Units=m
New Line.LINECmpd_103 Bus1=2267 Bus2=2417 phases=3 Linecode=35_SAC_PC Length=0.721583 Units=m
New Line.LINECmpd_104 Bus1=1939 Bus2=2183 phases=3 Linecode=35_SAC_PSC Length=8.377864 Units=m
New Line.LINECmpd_105 Bus1=1897 Bus2=2242 phases=3 Linecode=3c_95_SAC_ASN Length=63.467956 Units=m
New Line.LINECmpd_106 Bus1=2013 Bus2=2163 phases=3 Linecode=35_SAC_PSC Length=13.625238 Units=m
New Line.LINECmpd_107 Bus1=2201 Bus2=2294 phases=3 Linecode=3c_95_SAC_XC Length=0.766419 Units=m
New Line.LINECmpd_108 Bus1=1923 Bus2=2301 phases=3 Linecode=35_SAC_PC Length=15.000475 Units=m
New Line.LINECmpd_109 Bus1=1168 Bus2=1236 phases=3 Linecode=2c_.04 Length=5.8172 Units=m
New Line.LINECmpd_110 Bus1=217 Bus2=407 phases=3 Linecode=2c_.04 Length=16.206106 Units=m
New Line.LINECmpd_111 Bus1=1355 Bus2=1603 phases=3 Linecode=2c_.04 Length=14.57775 Units=m
New Line.LINECmpd_112 Bus1=1822 Bus2=1945 phases=3 Linecode=3c_95_SAC_XC Length=26.67216 Units=m
New Line.LINECmpd_113 Bus1=1570 Bus2=1661 phases=3 Linecode=4_PC Length=1.39272 Units=m
New Line.LINECmpd_114 Bus1=831 Bus2=1307 phases=3 Linecode=3c_300_SAC Length=16.55985 Units=m
New Line.LINECmpd_115 Bus1=440 Bus2=600 phases=3 Linecode=2c_.04 Length=8.008614 Units=m
New Line.LINECmpd_116 Bus1=1956 Bus2=2186 phases=3 Linecode=35_SAC_XC Length=10.24585 Units=m
New Line.LINECmpd_117 Bus1=2254 Bus2=2398 phases=3 Linecode=35_SAC_PC Length=1.69078 Units=m
New Line.LINECmpd_118 Bus1=2258 Bus2=2328 phases=3 Linecode=35_SAC_PC Length=0.7927 Units=m
New Line.LINECmpd_119 Bus1=1956 Bus2=2205 phases=3 Linecode=35_SAC_PSC Length=7.09848 Units=m
New Line.LINECmpd_120 Bus1=1261 Bus2=1581 phases=3 Linecode=2c_.04 Length=9.363263 Units=m
New Line.LINECmpd_121 Bus1=1884 Bus2=1939 phases=3 Linecode=3c_95_SAC_XC Length=19.77152 Units=m
New Line.LINECmpd_122 Bus1=160 Bus2=176 phases=3 Linecode=4c_.25 Length=2.12434 Units=m
New Line.LINECmpd_123 Bus1=2021 Bus2=2250 phases=3 Linecode=3c_95_SAC_XC Length=8.7552 Units=m
New Line.LINECmpd_124 Bus1=441 Bus2=485 phases=3 Linecode=2c_.04 Length=15.1648 Units=m
New Line.LINECmpd_125 Bus1=256 Bus2=270 phases=3 Linecode=4c_.25 Length=20.6859 Units=m
New Line.LINECmpd_126 Bus1=1669 Bus2=1697 phases=3 Linecode=2c_.04 Length=8.3527 Units=m
New Line.LINECmpd_127 Bus1=1859 Bus2=1977 phases=3 Linecode=35_SAC_PSC Length=11.696283 Units=m
New Line.LINECmpd_128 Bus1=1007 Bus2=1445 phases=3 Linecode=2c_.04 Length=10.37273 Units=m
New Line.LINECmpd_129 Bus1=1827 Bus2=1962 phases=3 Linecode=35_SAC_PC Length=12.61735 Units=m
New Line.LINECmpd_130 Bus1=2318 Bus2=2389 phases=3 Linecode=3c_95_SAC_XC Length=0.332458 Units=m
New Line.LINECmpd_131 Bus1=1897 Bus2=1960 phases=3 Linecode=3c_95_SAC_ASN Length=5.73986 Units=m
New Line.LINECmpd_132 Bus1=1729 Bus2=1783 phases=3 Linecode=3c_240_XC Length=7.21199 Units=m
New Line.LINECmpd_133 Bus1=94 Bus2=104 phases=3 Linecode=4_PC Length=0.8244 Units=m
New Line.LINECmpd_134 Bus1=778 Bus2=901 phases=3 Linecode=2c_.04 Length=8.40309 Units=m
New Line.LINECmpd_135 Bus1=1923 Bus2=2190 phases=3 Linecode=3c_95_SAC_XC Length=15.355713 Units=m
New Line.LINECmpd_136 Bus1=1137 Bus2=1355 phases=3 Linecode=2c_.04 Length=2.13545 Units=m
New Line.LINECmpd_137 Bus1=456 Bus2=504 phases=3 Linecode=4c_25 Length=26.048 Units=m
New Line.LINECmpd_138 Bus1=244 Bus2=256 phases=3 Linecode=4c_.25 Length=12.034 Units=m
New Line.LINECmpd_139 Bus1=703 Bus2=854 phases=3 Linecode=2c_.04 Length=11.72903 Units=m
New Line.LINECmpd_140 Bus1=2012 Bus2=2092 phases=3 Linecode=35_SAC_PSC Length=0.398427 Units=m
New Line.LINECmpd_141 Bus1=773 Bus2=814 phases=3 Linecode=2c_.04 Length=9.4236 Units=m
New Line.LINECmpd_142 Bus1=797 Bus2=1125 phases=3 Linecode=2c_.04 Length=10.45372 Units=m
New Line.LINECmpd_143 Bus1=2190 Bus2=2253 phases=3 Linecode=35_SAC_PC Length=25.9419 Units=m
New Line.LINECmpd_144 Bus1=1298 Bus2=1522 phases=3 Linecode=2c_.04 Length=10.019005 Units=m
New Line.LINECmpd_145 Bus1=2201 Bus2=2366 phases=3 Linecode=3c_95_SAC_XC Length=0.927017 Units=m
New Line.LINECmpd_146 Bus1=914 Bus2=1182 phases=3 Linecode=2c_.04 Length=7.4245 Units=m
New Line.LINECmpd_147 Bus1=823 Bus2=1349 phases=3 Linecode=2c_4 Length=9.763347 Units=m
New Line.LINECmpd_148 Bus1=1740 Bus2=1754 phases=3 Linecode=2c_.04 Length=4.01146 Units=m
New Line.LINECmpd_149 Bus1=1977 Bus2=2078 phases=3 Linecode=35_SAC_PSC Length=0.460708 Units=m
New Line.LINECmpd_150 Bus1=2015 Bus2=2110 phases=3 Linecode=35_SAC_PSC Length=0.398432 Units=m
New Line.LINECmpd_151 Bus1=244 Bus2=293 phases=3 Linecode=2c_.04 Length=14.129096 Units=m
New Line.LINECmpd_152 Bus1=610 Bus2=642 phases=3 Linecode=4c_.12 Length=6.2206 Units=m
New Line.LINECmpd_153 Bus1=293 Bus2=390 phases=3 Linecode=2c_.04 Length=2.235158 Units=m
New Line.LINECmpd_154 Bus1=807 Bus2=914 phases=3 Linecode=2c_.04 Length=6.60377 Units=m
New Line.LINECmpd_155 Bus1=1884 Bus2=2029 phases=3 Linecode=35_SAC_PC Length=15.318772 Units=m
New Line.LINECmpd_156 Bus1=2323 Bus2=2410 phases=3 Linecode=3c_95_SAC_XC Length=0.509874 Units=m
New Line.LINECmpd_157 Bus1=1956 Bus2=2204 phases=3 Linecode=35_SAC_XC Length=6.99793 Units=m
New Line.LINECmpd_158 Bus1=1137 Bus2=1298 phases=3 Linecode=2c_.04 Length=11.45158 Units=m
New Line.LINECmpd_159 Bus1=861 Bus2=1006 phases=3 Linecode=2c_.04 Length=1.64222 Units=m
New Line.LINECmpd_160 Bus1=854 Bus2=1167 phases=3 Linecode=2c_.04 Length=15.11673 Units=m
New Line.LINECmpd_161 Bus1=2264 Bus2=2384 phases=3 Linecode=35_SAC_PC Length=0.940736 Units=m
New Line.LINECmpd_162 Bus1=2257 Bus2=2379 phases=3 Linecode=35_SAC_PC Length=0.349428 Units=m
New Line.LINECmpd_163 Bus1=1859 Bus2=1884 phases=3 Linecode=3c_95_SAC_XC Length=3.33605 Units=m
New Line.LINECmpd_164 Bus1=2201 Bus2=2318 phases=3 Linecode=3c_95_SAC_XC Length=4.568398 Units=m
New Line.LINECmpd_165 Bus1=1588 Bus2=1680 phases=3 Linecode=3c_300_SAC Length=0.73733 Units=m
New Line.LINECmpd_166 Bus1=2318 Bus2=2428 phases=3 Linecode=3c_95_SAC_XC Length=1.35771 Units=m
New Line.LINECmpd_167 Bus1=656 Bus2=708 phases=3 Linecode=2c_.04 Length=8.24592 Units=m
New Line.LINECmpd_168 Bus1=1206 Bus2=1267 phases=3 Linecode=2c_.04 Length=7.0057 Units=m
New Line.LINECmpd_169 Bus1=729 Bus2=797 phases=3 Linecode=2c_.04 Length=6.88817 Units=m
New Line.LINECmpd_170 Bus1=1049 Bus2=1260 phases=3 Linecode=2c_.04 Length=2.832003 Units=m
New Line.LINECmpd_171 Bus1=1049 Bus2=1261 phases=3 Linecode=2c_.04 Length=3.147886 Units=m
New Line.LINECmpd_172 Bus1=677 Bus2=726 phases=3 Linecode=2c_.04 Length=9.87018 Units=m
New Line.LINECmpd_173 Bus1=173 Bus2=214 phases=3 Linecode=4c_.25 Length=3.91166 Units=m
New Line.LINECmpd_174 Bus1=278 Bus2=354 phases=3 Linecode=2c_.007 Length=0.951803 Units=m
New Line.LINECmpd_175 Bus1=729 Bus2=778 phases=3 Linecode=4c_.12 Length=18.3432 Units=m
New Line.LINECmpd_176 Bus1=2262 Bus2=2359 phases=3 Linecode=35_SAC_PC Length=0.52928 Units=m
New Line.LINECmpd_177 Bus1=643 Bus2=679 phases=3 Linecode=2c_.04 Length=5.5889 Units=m
New Line.LINECmpd_178 Bus1=2250 Bus2=2346 phases=3 Linecode=3c_95_SAC_XC Length=1.09476 Units=m
New Line.LINECmpd_179 Bus1=799 Bus2=1021 phases=3 Linecode=4_XC Length=1.40914 Units=m
New Line.LINECmpd_180 Bus1=786 Bus2=861 phases=3 Linecode=4c_.04 Length=7.92825 Units=m
New Line.LINECmpd_181 Bus1=324 Bus2=385 phases=3 Linecode=4c_.25 Length=14.72275 Units=m
New Line.LINECmpd_182 Bus1=658 Bus2=711 phases=3 Linecode=4c_.12 Length=14.4334 Units=m
New Line.LINECmpd_183 Bus1=226 Bus2=244 phases=3 Linecode=4c_.25 Length=22.785 Units=m
New Line.LINECmpd_184 Bus1=2323 Bus2=2374 phases=3 Linecode=3c_95_SAC_XC Length=0.41092 Units=m
New Line.LINECmpd_185 Bus1=2013 Bus2=2054 phases=3 Linecode=35_SAC_PSC Length=3.9941 Units=m
New Line.LINECmpd_186 Bus1=2268 Bus2=2338 phases=3 Linecode=35_SAC_PC Length=0.77392 Units=m
New Line.LINECmpd_187 Bus1=1807 Bus2=1822 phases=3 Linecode=3c_95_SAC_XC Length=0.920353 Units=m
New Line.LINECmpd_188 Bus1=215 Bus2=226 phases=3 Linecode=4c_.25 Length=13.5992 Units=m
New Line.LINECmpd_189 Bus1=576 Bus2=610 phases=3 Linecode=4c_.12 Length=16.8942 Units=m
New Line.LINECmpd_190 Bus1=160 Bus2=167 phases=3 Linecode=4c_.25 Length=4.19402 Units=m
New Line.LINECmpd_191 Bus1=2250 Bus2=2345 phases=3 Linecode=3c_95_SAC_XC Length=1.46472 Units=m
New Line.LINECmpd_192 Bus1=823 Bus2=876 phases=3 Linecode=4c_.12 Length=3.25473 Units=m
New Line.LINECmpd_193 Bus1=739 Bus2=773 phases=3 Linecode=4c_.04 Length=20.222 Units=m
New Line.LINECmpd_194 Bus1=385 Bus2=415 phases=3 Linecode=4c_25 Length=13.0458 Units=m
New Line.LINECmpd_195 Bus1=2318 Bus2=2390 phases=3 Linecode=3c_95_SAC_XC Length=0.29482 Units=m
New Line.LINECmpd_196 Bus1=203 Bus2=215 phases=3 Linecode=4c_.25 Length=4.4812 Units=m
New Line.LINECmpd_197 Bus1=911 Bus2=969 phases=3 Linecode=4c_.06 Length=10.5457 Units=m
New Line.LINECmpd_198 Bus1=750 Bus2=789 phases=3 Linecode=4c_.25 Length=12.3098 Units=m
New Line.LINECmpd_199 Bus1=739 Bus2=772 phases=3 Linecode=4c_185_SAC_XC Length=0.73432 Units=m
New Line.LINECmpd_200 Bus1=1099 Bus2=1172 phases=3 Linecode=4c_.06 Length=11.0845 Units=m
New Line.LINECmpd_201 Bus1=324 Bus2=344 phases=3 Linecode=2c_.007 Length=0.58302 Units=m
New Line.LINECmpd_202 Bus1=831 Bus2=885 phases=3 Linecode=4c_25 Length=13.94854 Units=m
